STAAD SPACE
START JOB INFORMATION
ENGINEER DATE 22-Aug-22
END JOB INFORMATION
INPUT WIDTH 79
UNIT METER KN
JOINT COORDINATES
1 0 0 0; 2 0 0 90; 3 0 0 -120;
MEMBER INCIDENCES
1 3 1; 2 1 2;
DEFINE MATERIAL START
ISOTROPIC CONCRETE
E 2.17185e+007
POISSON 0.17
DENSITY 23.5616
ALPHA 1e-005
DAMP 0.05
TYPE CONCRETE
STRENGTH FCU 27579
ISOTROPIC STEEL
E 2.05e+008
POISSON 0.3
DENSITY 76.8195
ALPHA 1.2e-005
DAMP 0.03
TYPE STEEL
STRENGTH FY 253200 FU 407800 RY 1.5 RT 1.2
END DEFINE MATERIAL
MEMBER PROPERTY AMERICAN
1 TABLE ST PIPE OD 10 ID 9.8
2 TABLE ST PIPE OD 10 ID 9.8
CONSTANTS
MATERIAL CONCRETE ALL
SUPPORTS
3 FIXED
DEFINE TIME HISTORY DT 0.5
TYPE 1 FORCE SAVE
1 1 2 2 3 3 4 4 5 5 6 4 7 3 8 2 9 1 10 0
LOAD 1 LOADTYPE None  TITLE FIXED
LOAD 2 LOADTYPE None  TITLE LOAD CASE 2
PERFORM ANALYSIS PRINT ALL
FINISH
